[General]
description = "Avens Client XPlane Model testing"
network = XPlaneTest
sim-time-limit = 20s
